BeH2
APtclcactv10291818093D 0   0.00000     0.00000
 
  3  2  0  0  0  0  0  0  0  0999 V2000
   -0.0000    0.0000    0.0000 Be  0  0  0  0  0  0  0  0  0  0  0  0
   -1.1900   -0.0000   -0.0000 H   0  0  0  0  0  0  0  0  0  0  0  0
    1.1900   -0.0000   -0.0000 H   0  0  0  0  0  0  0  0  0  0  0  0
  1  2  1  0  0  0  0
  1  3  1  0  0  0  0
M  END
$$$$
