F6S
APtclcactv07301821113D 0   0.00000     0.00000
 
  7  6  0  0  0  0  0  0  0  0999 V2000
   -0.0000   -0.0000    0.0000 S   0  0  0  0  0  0  0  0  0  0  0  0
   -1.1384    0.0000    1.1384 F   0  0  0  0  0  0  0  0  0  0  0  0
    1.1384   -0.0000   -1.1384 F   0  0  0  0  0  0  0  0  0  0  0  0
    1.1384   -0.0000    1.1384 F   0  0  0  0  0  0  0  0  0  0  0  0
   -1.1384    0.0000   -1.1384 F   0  0  0  0  0  0  0  0  0  0  0  0
   -0.0000   -1.6100   -0.0000 F   0  0  0  0  0  0  0  0  0  0  0  0
    0.0000    1.6100   -0.0000 F   0  0  0  0  0  0  0  0  0  0  0  0
  1  2  1  0  0  0  0
  1  3  1  0  0  0  0
  1  4  1  0  0  0  0
  1  5  1  0  0  0  0
  1  6  1  0  0  0  0
  1  7  1  0  0  0  0
M  END
$$$$
