ClF3
APtclcactv07311817413D 0   0.00000     0.00000
 
  4  3  0  0  0  0  0  0  0  0999 V2000
   -0.0000   -0.3227    0.0000 Cl  0  0  0  0  0  0  0  0  0  0  0  0
   -1.5700   -0.3227   -0.0000 F   0  0  0  0  0  0  0  0  0  0  0  0
    1.5700   -0.3227   -0.0000 F   0  0  0  0  0  0  0  0  0  0  0  0
    0.0000    1.2473    0.0000 F   0  0  0  0  0  0  0  0  0  0  0  0
  1  2  1  0  0  0  0
  1  3  1  0  0  0  0
  1  4  1  0  0  0  0
M  END
$$$$
