Cl5P
APtclcactv07311814023D 0   0.00000     0.00000
 
  6  5  0  0  0  0  0  0  0  0999 V2000
   -2.0800    0.0000    0.0000 Cl  0  0  0  0  0  0  0  0  0  0  0  0
   -0.0000    0.0000    0.0000 P   0  0  0  0  0  0  0  0  0  0  0  0
    2.0800    0.0000   -0.0000 Cl  0  0  0  0  0  0  0  0  0  0  0  0
    0.0000    2.0800   -0.0000 Cl  0  0  0  0  0  0  0  0  0  0  0  0
    0.0000   -1.0400    1.8013 Cl  0  0  0  0  0  0  0  0  0  0  0  0
    0.0000   -1.0400   -1.8013 Cl  0  0  0  0  0  0  0  0  0  0  0  0
  1  2  1  0  0  0  0
  2  3  1  0  0  0  0
  2  4  1  0  0  0  0
  2  5  1  0  0  0  0
  2  6  1  0  0  0  0
M  END
$$$$
