BeCl2
APtclcactv07311817173D 0   0.00000     0.00000
 
  3  2  0  0  0  0  0  0  0  0999 V2000
   -1.8000   -0.0000   -0.0000 Cl  0  4  0  0  0  0  0  0  0  0  0  0
    0.0000    0.0000    0.0000 Be  0  2  0  0  0  0  0  0  0  0  0  0
    1.8000   -0.0000   -0.0000 Cl  0  4  0  0  0  0  0  0  0  0  0  0
  1  2  1  0  0  0  0
  2  3  1  0  0  0  0
M  CHG  3   1  -1   2   2   3  -1
M  RAD  2   1   2   3   2
M  END
$$$$
