I3
APtclcactv11011819393D 0   0.00000     0.00000
 
  3  2  0  0  0  0  0  0  0  0999 V2000
   -2.6600   -0.0000   -0.0000 I   0  4  0  0  0  0  0  0  0  0  0  0
    0.0000    0.0000    0.0000 I   0  5  0  0  0  0  0  0  0  0  0  0
    2.6600   -0.0000   -0.0000 I   0  4  0  0  0  0  0  0  0  0  0  0
  1  2  1  0  0  0  0
  2  3  1  0  0  0  0
M  CHG  3   1  -1   2  -1   3  -1
M  RAD  2   1   2   3   2
M  END
$$$$
